Program Version,EnergyPlus, Version 22.1.0-ed759b17ee, YMD=2023.08.03 20:10,
   ** Warning ** Weather file location will be used rather than entered (IDF) Location object.
   **   ~~~   ** ..Location object=MENDOZA
   **   ~~~   ** ..Weather File Location=Mendoza Obs. - - MN7 WMO#=874200
   **   ~~~   ** ..due to location differences, Latitude difference=[1.20E-002] degrees, Longitude difference=[2.20E-002] degrees.
   **   ~~~   ** ..Time Zone difference=[1.0] hour(s), Elevation difference=[22.34] percent, [151.00] meters.
   ** Warning ** GetHTSurfaceData: Surfaces with interface to Ground found but no "Ground Temperatures" were input.
   **   ~~~   ** Found first in surface=PISO
   **   ~~~   ** Defaults, constant throughout the year of (18.0) will be used.
   ************* Testing Individual Branch Integrity
   ************* All Branches passed integrity testing
   ************* Testing Individual Supply Air Path Integrity
   ************* All Supply Air Paths passed integrity testing
   ************* Testing Individual Return Air Path Integrity
   ************* All Return Air Paths passed integrity testing
   ************* No node connection errors were found.
   ************* Beginning Simulation
   ************* Simulation Error Summary *************
   ************* There are 4 unused objects in input.
   ************* Use Output:Diagnostics,DisplayUnusedObjects; to see them.
   ************* There are 2 unused schedules in input.
   ************* There are 730 unused week schedules in input.
   ************* There are 730 unused day schedules in input.
   ************* Use Output:Diagnostics,DisplayUnusedSchedules; to see them.
   ************* EnergyPlus Warmup Error Summary. During Warmup: 0 Warning; 0 Severe Errors.
   ************* EnergyPlus Sizing Error Summary. During Sizing: 0 Warning; 0 Severe Errors.
   ************* EnergyPlus Completed Successfully-- 2 Warning; 0 Severe Errors; Elapsed Time=00hr 00min  8.98sec
